<?xml version="1.0" encoding="UTF-8"?>

<!-- generated on 11/16/21 16:52:23 by Eclipse SUMO netconvert Version 1.7.0
<configuration xmlns:xsi="http://www.w3.org/2001/XMLSchema-instance" xsi:noNamespaceSchemaLocation="http://sumo.dlr.de/xsd/netconvertConfiguration.xsd">

    <input>
        <opendrive-files value="LLC.xodr"/>
    </input>

    <output>
        <output-file value="LLC.net.xml"/>
    </output>

    <processing>
        <geometry.max-grade.fix value="false"/>
    </processing>

    <tls_building>
        <tls.left-green.time value="0"/>
    </tls_building>

    <junctions>
        <rectangular-lane-cut value="true"/>
    </junctions>

    <report>
        <aggregate-warnings value="5"/>
    </report>

</configuration>
-->

<net version="1.6" junctionCornerDetail="5" rectangularLaneCut="true" limitTurnSpeed="5.50" xmlns:xsi="http://www.w3.org/2001/XMLSchema-instance" xsi:noNamespaceSchemaLocation="http://sumo.dlr.de/xsd/net_file.xsd">

    <location netOffset="818.47,0.00" convBoundary="0.00,0.00,1621.54,24150.00" origBoundary="-818.47,0.00,803.07,24150.00" projParameter="!"/>

    <type id="bidirectional" priority="1" speed="1.39" disallow="pedestrian tram rail_urban rail rail_electric rail_fast ship" width="3.65"/>
    <type id="border" priority="0" speed="1.39" disallow="all" discard="1" width="0.10"/>
    <type id="driving" priority="1" speed="43.89" disallow="pedestrian tram rail_urban rail rail_electric rail_fast ship" width="3.65"/>
    <type id="entry" priority="1" speed="22.22" disallow="pedestrian tram rail_urban rail rail_electric rail_fast ship" width="3.65"/>
    <type id="exit" priority="1" speed="22.22" disallow="pedestrian tram rail_urban rail rail_electric rail_fast ship" width="3.65"/>
    <type id="median" priority="0" speed="1.39" disallow="all" discard="1" width="0.10"/>
    <type id="mwyEntry" priority="1" speed="22.22" allow="private emergency authority army vip passenger hov taxi bus coach delivery truck trailer motorcycle evehicle custom1 custom2" width="3.65"/>
    <type id="mwyExit" priority="1" speed="22.22" allow="private emergency authority army vip passenger hov taxi bus coach delivery truck trailer motorcycle evehicle custom1 custom2" width="3.65"/>
    <type id="none" priority="0" speed="1.39" disallow="all" discard="1" width="1.00"/>
    <type id="offRamp" priority="1" speed="22.22" allow="private emergency authority army vip passenger hov taxi bus coach delivery truck trailer motorcycle evehicle custom1 custom2" width="3.65"/>
    <type id="onRamp" priority="1" speed="22.22" allow="private emergency authority army vip passenger hov taxi bus coach delivery truck trailer motorcycle evehicle custom1 custom2" width="3.65"/>
    <type id="parking" priority="1" speed="1.39" disallow="pedestrian tram rail_urban rail rail_electric rail_fast ship" width="2.50"/>
    <type id="rail" priority="3" speed="33.33" allow="rail_urban rail rail_electric rail_fast" width="3.65"/>
    <type id="restricted" priority="0" speed="13.89" disallow="all" width="3.65"/>
    <type id="roadWorks" priority="0" speed="1.39" allow="authority" width="3.65"/>
    <type id="shoulder" priority="0" speed="1.39" disallow="all" discard="1" width="1.00"/>
    <type id="special1" priority="1" speed="22.22" allow="custom1" discard="1" width="3.65"/>
    <type id="special2" priority="1" speed="22.22" allow="custom2" discard="1" width="3.65"/>
    <type id="special3" priority="1" speed="22.22" allow="custom1 custom2" discard="1" width="3.65"/>
    <type id="stop" priority="1" speed="13.89" disallow="pedestrian tram rail_urban rail rail_electric rail_fast ship" width="3.65"/>
    <type id="tram" priority="2" speed="13.89" allow="tram" width="3.65"/>

    <edge id=":1.begin_0" function="internal">
        <lane id=":1.begin_0_0" index="0" disallow="pedestrian tram rail_urban rail rail_electric rail_fast ship" speed="3.82" length="5.11" width="3.50" shape="18.41,20401.75,10.50 17.13,20400.83,10.50 16.72,20399.94,10.50 17.19,20399.08,10.50 18.53,20398.25,10.50"/>
    </edge>
    <edge id=":11.begin_0" function="internal">
        <lane id=":11.begin_0_0" index="0" disallow="pedestrian tram rail_urban rail rail_electric rail_fast ship" speed="3.82" length="5.11" width="3.50" shape="18.52,13601.75,10.50 17.18,13600.91,10.50 16.72,13600.05,10.50 17.13,13599.16,10.50 18.42,13598.25,10.50"/>
    </edge>
    <edge id=":12.11_0" function="internal">
        <lane id=":12.11_0_0" index="0" disallow="pedestrian tram rail_urban rail rail_electric rail_fast ship" speed="17.88" length="0.10" width="3.50" shape="750.71,13581.15,10.50 750.71,13581.15,10.50"/>
    </edge>
    <edge id=":12.11_1" function="internal">
        <lane id=":12.11_1_0" index="0" disallow="pedestrian tram rail_urban rail rail_electric rail_fast ship" speed="17.88" length="0.10" width="3.50" shape="750.61,13577.65,10.50 750.61,13577.65,10.50"/>
    </edge>
    <edge id=":13.10_0" function="internal">
        <lane id=":13.10_0_0" index="0" disallow="pedestrian tram rail_urban rail rail_electric rail_fast ship" speed="17.88" length="0.10" width="3.50" shape="757.34,10241.11,10.50 757.34,10241.11,10.50"/>
    </edge>
    <edge id=":13.10_1" function="internal">
        <lane id=":13.10_1_0" index="0" disallow="pedestrian tram rail_urban rail rail_electric rail_fast ship" speed="17.88" length="0.10" width="3.50" shape="757.18,10237.61,10.50 757.18,10237.61,10.50"/>
    </edge>
    <edge id=":13.end_0" function="internal">
        <lane id=":13.end_0_0" index="0" disallow="pedestrian tram rail_urban rail rail_electric rail_fast ship" speed="3.82" length="5.11" width="3.50" shape="8.96,10275.32,10.50 7.61,10274.50,10.50 7.13,10273.65,10.50 7.53,10272.76,10.50 8.80,10271.82,10.50"/>
    </edge>
    <edge id=":14.begin_0" function="internal">
        <lane id=":14.begin_0_0" index="0" disallow="pedestrian tram rail_urban rail rail_electric rail_fast ship" speed="3.82" length="5.11" width="3.50" shape="-0.07,16940.03,10.50 -1.34,16939.10,10.50 -1.75,16938.21,10.50 -1.28,16937.35,10.50 0.07,16936.53,10.50"/>
    </edge>
    <edge id=":15.begin_0" function="internal">
        <lane id=":15.begin_0_0" index="0" disallow="pedestrian tram rail_urban rail rail_electric rail_fast ship" speed="3.82" length="5.11" width="3.50" shape="1615.37,6760.98,10.50 1616.70,6761.82,10.50 1617.16,6762.69,10.50 1616.74,6763.57,10.50 1615.45,6764.48,10.50"/>
    </edge>
    <edge id=":16.end_0" function="internal">
        <lane id=":16.end_0_0" index="0" disallow="pedestrian tram rail_urban rail rail_electric rail_fast ship" speed="3.82" length="5.11" width="3.50" shape="18.51,6801.75,10.50 17.18,6800.91,10.50 16.72,6800.04,10.50 17.14,6799.16,10.50 18.43,6798.25,10.50"/>
    </edge>
    <edge id=":18.end_0" function="internal">
        <lane id=":18.end_0_0" index="0" disallow="pedestrian tram rail_urban rail rail_electric rail_fast ship" speed="3.82" length="5.11" width="3.50" shape="1607.43,20457.10,10.50 1608.71,20458.02,10.50 1609.12,20458.91,10.50 1608.65,20459.77,10.50 1607.31,20460.60,10.50"/>
    </edge>
    <edge id=":2.end_0" function="internal">
        <lane id=":2.end_0_0" index="0" disallow="pedestrian tram rail_urban rail rail_electric rail_fast ship" speed="3.82" length="5.11" width="3.50" shape="1618.54,16998.25,10.50 1619.81,16999.18,10.50 1620.22,17000.07,10.50 1619.75,17000.92,10.50 1618.40,17001.75,10.50"/>
    </edge>
    <edge id=":3.10_0" function="internal">
        <lane id=":3.10_0_0" index="0" disallow="pedestrian tram rail_urban rail rail_electric rail_fast ship" speed="17.88" length="0.10" width="3.50" shape="886.86,10235.19,10.50 886.86,10235.19,10.50"/>
    </edge>
    <edge id=":3.10_1" function="internal">
        <lane id=":3.10_1_0" index="0" disallow="pedestrian tram rail_urban rail rail_electric rail_fast ship" speed="17.88" length="0.10" width="3.50" shape="886.70,10231.70,10.50 886.70,10231.70,10.50"/>
    </edge>
    <edge id=":3.begin_0" function="internal">
        <lane id=":3.begin_0_0" index="0" disallow="pedestrian tram rail_urban rail rail_electric rail_fast ship" speed="3.82" length="5.11" width="3.50" shape="1618.39,10198.25,10.50 1619.74,10199.07,10.50 1620.22,10199.92,10.50 1619.82,10200.81,10.50 1618.55,10201.75,10.50"/>
    </edge>
    <edge id=":4.14_0" function="internal">
        <lane id=":4.14_0_0" index="0" disallow="pedestrian tram rail_urban rail rail_electric rail_fast ship" speed="17.88" length="0.10" width="3.50" shape="762.33,16969.10,10.50 762.33,16969.10,10.50"/>
    </edge>
    <edge id=":4.14_1" function="internal">
        <lane id=":4.14_1_0" index="0" disallow="pedestrian tram rail_urban rail rail_electric rail_fast ship" speed="17.88" length="0.10" width="3.50" shape="762.47,16965.60,10.50 762.47,16965.60,10.50"/>
    </edge>
    <edge id=":4.2_0" function="internal">
        <lane id=":4.2_0_0" index="0" disallow="pedestrian tram rail_urban rail rail_electric rail_fast ship" speed="17.88" length="0.10" width="3.50" shape="890.72,16974.00,10.50 890.72,16974.00,10.50"/>
    </edge>
    <edge id=":4.2_1" function="internal">
        <lane id=":4.2_1_0" index="0" disallow="pedestrian tram rail_urban rail rail_electric rail_fast ship" speed="17.88" length="0.10" width="3.50" shape="890.85,16970.50,10.50 890.85,16970.50,10.50"/>
    </edge>
    <edge id=":5.12_0" function="internal">
        <lane id=":5.12_0_0" index="0" disallow="pedestrian tram rail_urban rail rail_electric rail_fast ship" speed="17.88" length="0.10" width="3.50" shape="891.83,13577.18,10.50 891.83,13577.18,10.50"/>
    </edge>
    <edge id=":5.12_1" function="internal">
        <lane id=":5.12_1_0" index="0" disallow="pedestrian tram rail_urban rail rail_electric rail_fast ship" speed="17.88" length="0.10" width="3.50" shape="891.73,13573.68,10.50 891.73,13573.68,10.50"/>
    </edge>
    <edge id=":5.end_0" function="internal">
        <lane id=":5.end_0_0" index="0" disallow="pedestrian tram rail_urban rail rail_electric rail_fast ship" speed="3.82" length="5.11" width="3.50" shape="1614.39,13553.35,10.50 1615.73,13554.19,10.50 1616.19,13555.05,10.50 1615.78,13555.94,10.50 1614.49,13556.85,10.50"/>
    </edge>
    <edge id=":6.1_0" function="internal">
        <lane id=":6.1_0_0" index="0" disallow="pedestrian tram rail_urban rail rail_electric rail_fast ship" speed="17.88" length="0.10" width="3.50" shape="758.10,20429.15,10.50 758.10,20429.15,10.50"/>
    </edge>
    <edge id=":6.1_1" function="internal">
        <lane id=":6.1_1_0" index="0" disallow="pedestrian tram rail_urban rail rail_electric rail_fast ship" speed="17.88" length="0.10" width="3.50" shape="758.23,20425.65,10.50 758.23,20425.65,10.50"/>
    </edge>
    <edge id=":6.18_0" function="internal">
        <lane id=":6.18_0_0" index="0" disallow="pedestrian tram rail_urban rail rail_electric rail_fast ship" speed="17.88" length="0.10" width="3.50" shape="890.52,20434.05,10.50 890.52,20434.05,10.50"/>
    </edge>
    <edge id=":6.18_1" function="internal">
        <lane id=":6.18_1_0" index="0" disallow="pedestrian tram rail_urban rail rail_electric rail_fast ship" speed="17.88" length="0.10" width="3.50" shape="890.64,20430.55,10.50 890.64,20430.55,10.50"/>
    </edge>
    <edge id=":7.15_0" function="internal">
        <lane id=":7.15_0_0" index="0" disallow="pedestrian tram rail_urban rail rail_electric rail_fast ship" speed="17.88" length="0.10" width="3.50" shape="885.14,6781.52,10.50 885.14,6781.52,10.50"/>
    </edge>
    <edge id=":7.15_1" function="internal">
        <lane id=":7.15_1_0" index="0" disallow="pedestrian tram rail_urban rail rail_electric rail_fast ship" speed="17.88" length="0.10" width="3.50" shape="885.06,6778.02,10.50 885.06,6778.02,10.50"/>
    </edge>
    <edge id=":7.16_0" function="internal">
        <lane id=":7.16_0_0" index="0" disallow="pedestrian tram rail_urban rail rail_electric rail_fast ship" speed="17.88" length="0.10" width="3.50" shape="759.54,6784.46,10.50 759.54,6784.46,10.50"/>
    </edge>
    <edge id=":7.16_1" function="internal">
        <lane id=":7.16_1_0" index="0" disallow="pedestrian tram rail_urban rail rail_electric rail_fast ship" speed="17.88" length="0.10" width="3.50" shape="759.45,6780.96,10.50 759.45,6780.96,10.50"/>
    </edge>
    <edge id=":8.0_0" function="internal">
        <lane id=":8.0_0_0" index="0" disallow="pedestrian tram rail_urban rail rail_electric rail_fast ship" speed="17.88" length="0.10" width="3.50" shape="881.74,3398.32,10.50 881.74,3398.32,10.50"/>
    </edge>
    <edge id=":8.0_1" function="internal">
        <lane id=":8.0_1_0" index="0" disallow="pedestrian tram rail_urban rail rail_electric rail_fast ship" speed="17.88" length="0.10" width="3.50" shape="881.92,3394.82,10.50 881.92,3394.82,10.50"/>
    </edge>
    <edge id=":8.begin_0" function="internal">
        <lane id=":8.begin_0_0" index="0" disallow="pedestrian tram rail_urban rail rail_electric rail_fast ship" speed="3.82" length="5.11" width="3.50" shape="1621.63,3434.08,10.50 1622.90,3435.03,10.50 1623.29,3435.92,10.50 1622.80,3436.77,10.50 1621.45,3437.58,10.50"/>
    </edge>
    <edge id=":9.0_0" function="internal">
        <lane id=":9.0_0_0" index="0" disallow="pedestrian tram rail_urban rail rail_electric rail_fast ship" speed="17.88" length="0.10" width="3.50" shape="754.12,3391.54,10.50 754.12,3391.54,10.50"/>
    </edge>
    <edge id=":9.0_1" function="internal">
        <lane id=":9.0_1_0" index="0" disallow="pedestrian tram rail_urban rail rail_electric rail_fast ship" speed="17.88" length="0.10" width="3.50" shape="754.30,3388.05,10.50 754.30,3388.05,10.50"/>
    </edge>
    <edge id=":9.end_0" function="internal">
        <lane id=":9.end_0_0" index="0" disallow="pedestrian tram rail_urban rail rail_electric rail_fast ship" speed="3.82" length="5.11" width="3.50" shape="15.49,3352.34,10.50 14.22,3351.39,10.50 13.83,3350.50,10.50 14.32,3349.65,10.50 15.67,3348.84,10.50"/>
    </edge>

    <edge id="-0.0.00" from="8.0" to="9.0" priority="1" type="driving" shape="881.83,3396.57,10.50 879.84,3396.46,10.50 877.84,3396.36,10.50 875.85,3396.25,10.50 873.85,3396.14,10.50 871.86,3396.04,10.50 869.87,3395.93,10.50 867.87,3395.83,10.50 865.88,3395.72,10.50 863.88,3395.62,10.50 861.89,3395.51,10.50 859.90,3395.40,10.50 857.90,3395.30,10.50 855.91,3395.19,10.50 853.91,3395.09,10.50 851.92,3394.98,10.50 849.92,3394.87,10.50 847.93,3394.77,10.50 845.94,3394.66,10.50 843.94,3394.56,10.50 841.95,3394.45,10.50 839.95,3394.35,10.50 837.96,3394.24,10.50 835.97,3394.13,10.50 833.97,3394.03,10.50 831.98,3393.92,10.50 829.98,3393.82,10.50 827.99,3393.71,10.50 826.00,3393.60,10.50 824.00,3393.50,10.50 822.01,3393.39,10.50 820.01,3393.29,10.50 818.02,3393.18,10.50 816.03,3393.08,10.50 814.03,3392.97,10.50 812.04,3392.86,10.50 810.04,3392.76,10.50 808.05,3392.65,10.50 806.05,3392.55,10.50 804.06,3392.44,10.50 802.07,3392.33,10.50 800.07,3392.23,10.50 798.08,3392.12,10.50 796.08,3392.02,10.50 794.09,3391.91,10.50 792.10,3391.81,10.50 790.10,3391.70,10.50 788.11,3391.59,10.50 786.11,3391.49,10.50 784.12,3391.38,10.50 782.13,3391.28,10.50 780.13,3391.17,10.50 778.14,3391.06,10.50 776.14,3390.96,10.50 774.15,3390.85,10.50 772.16,3390.75,10.50 770.16,3390.64,10.50 768.17,3390.54,10.50 766.17,3390.43,10.50 764.18,3390.32,10.50 762.19,3390.22,10.50 760.19,3390.11,10.50 758.20,3390.01,10.50 756.20,3389.90,10.50 754.21,3389.79,10.50">
        <lane id="-0.0.00_0" index="0" disallow="pedestrian tram rail_urban rail rail_electric rail_fast ship" speed="17.88" length="127.80" width="3.50" shape="881.74,3398.32,10.50 879.74,3398.21,10.50 877.75,3398.10,10.50 875.75,3398.00,10.50 873.76,3397.89,10.50 871.77,3397.79,10.50 869.77,3397.68,10.50 867.78,3397.57,10.50 865.78,3397.47,10.50 863.79,3397.36,10.50 861.80,3397.26,10.50 859.80,3397.15,10.50 857.81,3397.05,10.50 855.81,3396.94,10.50 853.82,3396.83,10.50 851.83,3396.73,10.50 849.83,3396.62,10.50 847.84,3396.52,10.50 845.84,3396.41,10.50 843.85,3396.30,10.50 841.86,3396.20,10.50 839.86,3396.09,10.50 837.87,3395.99,10.50 835.87,3395.88,10.50 833.88,3395.78,10.50 831.89,3395.67,10.50 829.89,3395.56,10.50 827.90,3395.46,10.50 825.90,3395.35,10.50 823.91,3395.25,10.50 821.91,3395.14,10.50 819.92,3395.03,10.50 817.93,3394.93,10.50 815.93,3394.82,10.50 813.94,3394.72,10.50 811.94,3394.61,10.50 809.95,3394.51,10.50 807.96,3394.40,10.50 805.96,3394.29,10.50 803.97,3394.19,10.50 801.97,3394.08,10.50 799.98,3393.98,10.50 797.99,3393.87,10.50 795.99,3393.76,10.50 794.00,3393.66,10.50 792.00,3393.55,10.50 790.01,3393.45,10.50 788.02,3393.34,10.50 786.02,3393.24,10.50 784.03,3393.13,10.50 782.03,3393.02,10.50 780.04,3392.92,10.50 778.05,3392.81,10.50 776.05,3392.71,10.50 774.06,3392.60,10.50 772.06,3392.49,10.50 770.07,3392.39,10.50 768.07,3392.28,10.50 766.08,3392.18,10.50 764.09,3392.07,10.50 762.09,3391.97,10.50 760.10,3391.86,10.50 758.10,3391.75,10.50 756.11,3391.65,10.50 754.12,3391.54,10.50" type="driving"/>
    </edge>
    <edge id="-1.0.00" from="1.begin" to="6.1" priority="1" type="driving" shape="18.47,20400.00,10.50 20.45,20400.07,10.50 22.43,20400.15,10.50 24.42,20400.22,10.50 26.40,20400.29,10.50 28.38,20400.37,10.50 30.36,20400.44,10.50 32.34,20400.51,10.50 34.33,20400.59,10.50 36.31,20400.66,10.50 38.29,20400.73,10.50 40.27,20400.81,10.50 42.25,20400.88,10.50 44.24,20400.95,10.50 46.22,20401.03,10.50 48.20,20401.10,10.50 50.18,20401.17,10.50 52.17,20401.25,10.50 54.15,20401.32,10.50 56.13,20401.39,10.50 58.11,20401.47,10.50 60.09,20401.54,10.50 62.08,20401.62,10.50 64.06,20401.69,10.50 66.04,20401.76,10.50 68.02,20401.84,10.50 70.00,20401.91,10.50 71.99,20401.98,10.50 73.97,20402.06,10.50 75.95,20402.13,10.50 77.93,20402.20,10.50 79.91,20402.28,10.50 81.90,20402.35,10.50 83.88,20402.42,10.50 85.86,20402.50,10.50 87.84,20402.57,10.50 89.82,20402.64,10.50 91.81,20402.72,10.50 93.79,20402.79,10.50 95.77,20402.86,10.50 97.75,20402.94,10.50 99.73,20403.01,10.50 101.72,20403.08,10.50 103.70,20403.16,10.50 105.68,20403.23,10.50 107.66,20403.30,10.50 109.65,20403.38,10.50 111.63,20403.45,10.50 113.61,20403.52,10.50 115.59,20403.60,10.50 117.57,20403.67,10.50 119.56,20403.74,10.50 121.54,20403.82,10.50 123.52,20403.89,10.50 125.50,20403.96,10.50 127.48,20404.04,10.50 129.47,20404.11,10.50 131.45,20404.18,10.50 133.43,20404.26,10.50 135.41,20404.33,10.50 137.39,20404.40,10.50 139.38,20404.48,10.50 141.36,20404.55,10.50 143.34,20404.62,10.50 145.32,20404.70,10.50 147.30,20404.77,10.50 149.29,20404.85,10.50 151.27,20404.92,10.50 153.25,20404.99,10.50 155.23,20405.07,10.50 157.21,20405.14,10.50 159.20,20405.21,10.50 161.18,20405.29,10.50 163.16,20405.36,10.50 165.14,20405.43,10.50 167.13,20405.51,10.50 169.11,20405.58,10.50 171.09,20405.65,10.50 173.07,20405.73,10.50 175.05,20405.80,10.50 177.04,20405.87,10.50 179.02,20405.95,10.50 181.00,20406.02,10.50 182.98,20406.09,10.50 184.96,20406.17,10.50 186.95,20406.24,10.50 188.93,20406.31,10.50 190.91,20406.39,10.50 192.89,20406.46,10.50 194.87,20406.53,10.50 196.86,20406.61,10.50 198.84,20406.68,10.50 200.82,20406.75,10.50 202.80,20406.83,10.50 204.78,20406.90,10.50 206.77,20406.97,10.50 208.75,20407.05,10.50 210.73,20407.12,10.50 212.71,20407.19,10.50 214.69,20407.27,10.50 216.68,20407.34,10.50 218.66,20407.41,10.50 220.64,20407.49,10.50 222.62,20407.56,10.50 224.61,20407.63,10.50 226.59,20407.71,10.50 228.57,20407.78,10.50 230.55,20407.86,10.50 232.53,20407.93,10.50 234.52,20408.00,10.50 236.50,20408.08,10.50 238.49,20408.15,10.50 240.48,20408.22,10.50 242.47,20408.30,10.50 244.46,20408.37,10.50 246.45,20408.44,10.50 248.44,20408.52,10.50 250.44,20408.59,10.50 252.43,20408.67,10.50 254.42,20408.74,10.50 256.41,20408.81,10.50 258.40,20408.89,10.50 260.39,20408.96,10.50 262.38,20409.03,10.50 264.37,20409.11,10.50 266.36,20409.18,10.50 268.35,20409.26,10.50 270.35,20409.33,10.50 272.34,20409.40,10.50 274.33,20409.48,10.50 276.32,20409.55,10.50 278.31,20409.62,10.50 280.30,20409.70,10.50 282.29,20409.77,10.50 284.28,20409.85,10.50 286.27,20409.92,10.50 288.27,20409.99,10.50 290.26,20410.07,10.50 292.25,20410.14,10.50 294.24,20410.21,10.50 296.23,20410.29,10.50 298.22,20410.36,10.50 300.21,20410.44,10.50 302.20,20410.51,10.50 304.19,20410.58,10.50 306.19,20410.66,10.50 308.18,20410.73,10.50 310.17,20410.80,10.50 312.16,20410.88,10.50 314.15,20410.95,10.50 316.14,20411.03,10.50 318.13,20411.10,10.50 320.12,20411.17,10.50 322.11,20411.25,10.50 324.11,20411.32,10.50 326.10,20411.39,10.50 328.09,20411.47,10.50 330.08,20411.54,10.50 332.07,20411.62,10.50 334.06,20411.69,10.50 336.05,20411.76,10.50 338.04,20411.84,10.50 340.03,20411.91,10.50 342.02,20411.98,10.50 344.02,20412.06,10.50 346.01,20412.13,10.50 348.00,20412.21,10.50 349.99,20412.28,10.50 351.98,20412.35,10.50 353.97,20412.43,10.50 355.96,20412.50,10.50 357.95,20412.57,10.50 359.94,20412.65,10.50 361.94,20412.72,10.50 363.93,20412.80,10.50 365.92,20412.87,10.50 367.91,20412.94,10.50 369.90,20413.02,10.50 371.89,20413.09,10.50 373.88,20413.16,10.50 375.87,20413.24,10.50 377.86,20413.31,10.50 379.86,20413.38,10.50 381.85,20413.46,10.50 383.84,20413.53,10.50 385.83,20413.61,10.50 387.82,20413.68,10.50 389.81,20413.75,10.50 391.80,20413.83,10.50 393.79,20413.90,10.50 395.78,20413.97,10.50 397.78,20414.05,10.50 399.77,20414.12,10.50 401.76,20414.20,10.50 403.75,20414.27,10.50 405.74,20414.34,10.50 407.73,20414.42,10.50 409.72,20414.49,10.50 411.71,20414.56,10.50 413.70,20414.64,10.50 415.70,20414.71,10.50 417.69,20414.79,10.50 419.68,20414.86,10.50 421.67,20414.93,10.50 423.66,20415.01,10.50 425.65,20415.08,10.50 427.64,20415.15,10.50 429.63,20415.23,10.50 431.62,20415.30,10.50 433.61,20415.38,10.50 435.61,20415.45,10.50 437.60,20415.52,10.50 439.59,20415.60,10.50 441.58,20415.67,10.50 443.57,20415.74,10.50 445.56,20415.82,10.50 447.55,20415.89,10.50 449.54,20415.97,10.50 451.53,20416.04,10.50 453.53,20416.11,10.50 455.52,20416.19,10.50 457.51,20416.26,10.50 459.50,20416.33,10.50 461.49,20416.41,10.50 463.48,20416.48,10.50 465.47,20416.56,10.50 467.46,20416.63,10.50 469.45,20416.70,10.50 471.45,20416.78,10.50 473.44,20416.85,10.50 475.43,20416.92,10.50 477.42,20417.00,10.50 479.41,20417.07,10.50 481.40,20417.15,10.50 483.39,20417.22,10.50 485.38,20417.29,10.50 487.37,20417.37,10.50 489.37,20417.44,10.50 491.36,20417.51,10.50 493.35,20417.59,10.50 495.34,20417.66,10.50 497.33,20417.74,10.50 499.32,20417.81,10.50 501.31,20417.88,10.50 503.30,20417.96,10.50 505.29,20418.03,10.50 507.28,20418.10,10.50 509.28,20418.18,10.50 511.27,20418.25,10.50 513.26,20418.33,10.50 515.25,20418.40,10.50 517.24,20418.47,10.50 519.23,20418.55,10.50 521.22,20418.62,10.50 523.21,20418.69,10.50 525.20,20418.77,10.50 527.20,20418.84,10.50 529.19,20418.92,10.50 531.18,20418.99,10.50 533.17,20419.06,10.50 535.16,20419.14,10.50 537.15,20419.21,10.50 539.14,20419.28,10.50 541.13,20419.36,10.50 543.12,20419.43,10.50 545.12,20419.51,10.50 547.11,20419.58,10.50 549.10,20419.65,10.50 551.09,20419.73,10.50 553.08,20419.80,10.50 555.07,20419.87,10.50 557.06,20419.95,10.50 559.05,20420.02,10.50 561.04,20420.10,10.50 563.04,20420.17,10.50 565.03,20420.24,10.50 567.02,20420.32,10.50 569.01,20420.39,10.50 571.00,20420.46,10.50 572.99,20420.54,10.50 574.98,20420.61,10.50 576.97,20420.69,10.50 578.96,20420.76,10.50 580.96,20420.83,10.50 582.95,20420.91,10.50 584.94,20420.98,10.50 586.93,20421.05,10.50 588.92,20421.13,10.50 590.91,20421.20,10.50 592.90,20421.28,10.50 594.89,20421.35,10.50 596.88,20421.42,10.50 598.87,20421.50,10.50 600.87,20421.57,10.50 602.86,20421.64,10.50 604.85,20421.72,10.50 606.84,20421.79,10.50 608.83,20421.87,10.50 610.82,20421.94,10.50 612.81,20422.01,10.50 614.80,20422.09,10.50 616.79,20422.16,10.50 618.79,20422.23,10.50 620.78,20422.31,10.50 622.77,20422.38,10.50 624.76,20422.46,10.50 626.75,20422.53,10.50 628.74,20422.60,10.50 630.73,20422.68,10.50 632.72,20422.75,10.50 634.71,20422.82,10.50 636.71,20422.90,10.50 638.70,20422.97,10.50 640.69,20423.05,10.50 642.68,20423.12,10.50 644.67,20423.19,10.50 646.66,20423.27,10.50 648.65,20423.34,10.50 650.64,20423.41,10.50 652.63,20423.49,10.50 654.63,20423.56,10.50 656.62,20423.64,10.50 658.61,20423.71,10.50 660.60,20423.78,10.50 662.59,20423.86,10.50 664.58,20423.93,10.50 666.57,20424.00,10.50 668.56,20424.08,10.50 670.55,20424.15,10.50 672.54,20424.23,10.50 674.54,20424.30,10.50 676.53,20424.37,10.50 678.52,20424.45,10.50 680.51,20424.52,10.50 682.50,20424.59,10.50 684.49,20424.67,10.50 686.48,20424.74,10.50 688.47,20424.82,10.50 690.46,20424.89,10.50 692.46,20424.96,10.50 694.45,20425.04,10.50 696.44,20425.11,10.50 698.43,20425.18,10.50 700.42,20425.26,10.50 702.41,20425.33,10.50 704.40,20425.41,10.50 706.39,20425.48,10.50 708.38,20425.55,10.50 710.38,20425.63,10.50 712.37,20425.70,10.50 714.36,20425.77,10.50 716.35,20425.85,10.50 718.34,20425.92,10.50 720.33,20426.00,10.50 722.32,20426.07,10.50 724.31,20426.14,10.50 726.30,20426.22,10.50 728.30,20426.29,10.50 730.29,20426.36,10.50 732.28,20426.44,10.50 734.27,20426.51,10.50 736.26,20426.59,10.50 738.25,20426.66,10.50 740.24,20426.73,10.50 742.23,20426.81,10.50 744.22,20426.88,10.50 746.22,20426.95,10.50 748.21,20427.03,10.50 750.20,20427.10,10.50 752.19,20427.18,10.50 754.18,20427.25,10.50 756.17,20427.32,10.50 758.16,20427.40,10.50">